# generated using pymatgen
data_Mg3N
_symmetry_space_group_name_H-M   'P 1'
_cell_length_a   4.73150100
_cell_length_b   5.62221773
_cell_length_c   5.62221773
_cell_angle_alpha   120.00000000
_cell_angle_beta   90.00000000
_cell_angle_gamma   90.00000000
_symmetry_Int_Tables_number   1
_chemical_formula_structural   Mg3N
_chemical_formula_sum   'Mg6 N2'
_cell_volume   129.52240166
_cell_formula_units_Z   2
loop_
 _symmetry_equiv_pos_site_id
 _symmetry_equiv_pos_as_xyz
  1  'x, y, z'
loop_
 _atom_site_type_symbol
 _atom_site_label
 _atom_site_symmetry_multiplicity
 _atom_site_fract_x
 _atom_site_fract_y
 _atom_site_fract_z
 _atom_site_occupancy
  Mg  Mg0  1  0.75000000  0.82877100  0.17122900  1.0
  Mg  Mg1  1  0.25000000  0.17122900  0.82877100  1.0
  Mg  Mg2  1  0.25000000  0.17122900  0.34245800  1.0
  Mg  Mg3  1  0.75000000  0.82877100  0.65754200  1.0
  Mg  Mg4  1  0.75000000  0.34245800  0.17122900  1.0
  Mg  Mg5  1  0.25000000  0.65754200  0.82877100  1.0
  N  N6  1  0.25000000  0.66666667  0.33333333  1.0
  N  N7  1  0.75000000  0.33333333  0.66666667  1.0
