# generated using pymatgen
data_Li2O2
_symmetry_space_group_name_H-M   'P 1'
_cell_length_a   3.18036175
_cell_length_b   3.18036175
_cell_length_c   7.70352200
_cell_angle_alpha   90.00000000
_cell_angle_beta   90.00000000
_cell_angle_gamma   119.99999486
_symmetry_Int_Tables_number   1
_chemical_formula_structural   Li2O2
_chemical_formula_sum   'Li4 O4'
_cell_volume   67.47968170
_cell_formula_units_Z   2
loop_
 _symmetry_equiv_pos_site_id
 _symmetry_equiv_pos_as_xyz
  1  'x, y, z'
loop_
 _atom_site_type_symbol
 _atom_site_label
 _atom_site_symmetry_multiplicity
 _atom_site_fract_x
 _atom_site_fract_y
 _atom_site_fract_z
 _atom_site_occupancy
  Li  Li0  1  0.00000000  0.00000000  0.00000000  1
  Li  Li1  1  0.00000000  0.00000000  0.50000000  1
  Li  Li2  1  0.33333300  0.66666700  0.25000000  1
  Li  Li3  1  0.66666700  0.33333300  0.75000000  1
  O  O4  1  0.33333300  0.66666700  0.64931000  1
  O  O5  1  0.66666700  0.33333300  0.14931000  1
  O  O6  1  0.66666700  0.33333300  0.35069000  1
  O  O7  1  0.33333300  0.66666700  0.85069000  1
