# generated using pymatgen
data_B
_symmetry_space_group_name_H-M   'P 1'
_cell_length_a   4.89997770
_cell_length_b   4.89997770
_cell_length_c   5.05037468
_cell_angle_alpha   60.98029985
_cell_angle_beta   60.98029985
_cell_angle_gamma   60.00000000
_symmetry_Int_Tables_number   1
_chemical_formula_structural   B
_chemical_formula_sum   B12
_cell_volume   86.99121209
_cell_formula_units_Z   12
loop_
 _symmetry_equiv_pos_site_id
 _symmetry_equiv_pos_as_xyz
  1  'x, y, z'
loop_
 _atom_site_type_symbol
 _atom_site_label
 _atom_site_symmetry_multiplicity
 _atom_site_fract_x
 _atom_site_fract_y
 _atom_site_fract_z
 _atom_site_occupancy
  B  B0  1  0.22113000  0.22113000  0.92728200  1.0
  B  B1  1  0.77887000  0.77887000  0.07271800  1.0
  B  B2  1  0.63045800  0.22113000  0.92728200  1.0
  B  B3  1  0.36954200  0.77887000  0.07271800  1.0
  B  B4  1  0.22113000  0.63045800  0.92728200  1.0
  B  B5  1  0.77887000  0.36954200  0.07271800  1.0
  B  B6  1  0.98969199  0.98969200  0.67465001  1.0
  B  B7  1  0.01030801  0.01030800  0.32534999  1.0
  B  B8  1  0.34596600  0.98969199  0.67465001  1.0
  B  B9  1  0.65403400  0.01030801  0.32534999  1.0
  B  B10  1  0.98969200  0.34596600  0.67465001  1.0
  B  B11  1  0.01030800  0.65403400  0.32534999  1.0
