# generated using pymatgen
data_Li2O2
_symmetry_space_group_name_H-M   'P 1'
_cell_length_a   3.33619335
_cell_length_b   3.33619335
_cell_length_c   7.90047500
_cell_angle_alpha   90.00000000
_cell_angle_beta   90.00000000
_cell_angle_gamma   119.99998702
_symmetry_Int_Tables_number   1
_chemical_formula_structural   Li2O2
_chemical_formula_sum   'Li4 O4'
_cell_volume   76.15287697
_cell_formula_units_Z   2
loop_
 _symmetry_equiv_pos_site_id
 _symmetry_equiv_pos_as_xyz
  1  'x, y, z'
loop_
 _atom_site_type_symbol
 _atom_site_label
 _atom_site_symmetry_multiplicity
 _atom_site_fract_x
 _atom_site_fract_y
 _atom_site_fract_z
 _atom_site_occupancy
  Li  Li0  1  0.66666700  0.33333300  0.39762700  1
  Li  Li1  1  0.33333300  0.66666700  0.89762700  1
  Li  Li2  1  0.66666700  0.33333300  0.10237300  1
  Li  Li3  1  0.33333300  0.66666700  0.60237300  1
  O  O4  1  0.66666700  0.33333300  0.65386300  1
  O  O5  1  0.66666700  0.33333300  0.84613700  1
  O  O6  1  0.33333300  0.66666700  0.15386300  1
  O  O7  1  0.33333300  0.66666700  0.34613700  1
